fuc(a1-3)fuc(2S).sdf
     RDKit          2D

 25 26  0  1  1  0  0  0  0  0999 V2000
   -2.4235   -0.7096    0.0000 C   0  0  0  0  0  0  0  0  0  0  0  0
   -3.0369   -1.7721    0.0000 C   0  0  0  0  0  0  0  0  0  0  0  0
   -1.8571   -1.4348    0.0000 C   0  0  0  0  0  0  0  0  0  0  0  0
   -0.6704   -1.7721    0.0000 C   0  0  0  0  0  0  0  0  0  0  0  0
   -0.0567   -0.7096    0.0000 C   0  0  0  0  0  0  0  0  0  0  0  0
   -1.2366   -1.0467    0.0000 O   0  0  0  0  0  0  0  0  0  0  0  0
   -0.0567    0.1156    0.0000 O   0  0  0  0  0  0  0  0  0  0  0  0
   -3.2203   -0.9231    0.0000 C   0  0  0  0  0  0  0  0  0  0  0  0
   -3.0369   -2.5971    0.0000 O   0  0  0  0  0  0  0  0  0  0  0  0
   -2.4405   -2.0183    0.0000 O   0  0  0  0  0  0  0  0  0  0  0  0
    0.0442   -1.3596    0.0000 O   0  0  0  0  0  0  0  0  0  0  0  0
   -0.0724    1.5971    0.0000 C   0  0  0  0  0  0  0  0  0  0  0  0
   -0.6858    0.5346    0.0000 C   0  0  0  0  0  0  0  0  0  0  0  0
    0.4941    0.8719    0.0000 C   0  0  0  0  0  0  0  0  0  0  0  0
    1.6807    0.5346    0.0000 C   0  0  0  0  0  0  0  0  0  0  0  0
    2.2944    1.5971    0.0000 C   0  0  0  0  0  0  0  0  0  0  0  0
    1.1146    1.2601    0.0000 O   0  0  0  0  0  0  0  0  0  0  0  0
    2.2944    2.4224    0.0000 O   0  0  0  0  0  0  0  0  0  0  0  0
   -0.8692    1.3837    0.0000 C   0  0  0  0  0  0  0  0  0  0  0  0
   -0.6858   -0.2904    0.0000 O   0  0  0  0  0  0  0  0  0  0  0  0
    2.3953    0.9471    0.0000 O   0  0  0  0  0  0  0  0  0  0  0  0
    2.3953    1.7721    0.0000 S   0  0  0  0  0  0  0  0  0  0  0  0
    3.2203    1.7721    0.0000 O   0  0  0  0  0  0  0  0  0  0  0  0
    1.5703    1.7721    0.0000 O   0  0  0  0  0  0  0  0  0  0  0  0
    2.3953    2.5971    0.0000 O   0  0  0  0  0  0  0  0  0  0  0  0
 22 23  2  0
 22 24  2  0
 22 25  1  0
 21 22  1  0
 15 21  1  0
  1  2  1  0
  2  3  1  0
  3  4  1  0
  5  4  1  0
  5  6  1  0
  6  1  1  0
  5  7  1  1
  1  8  1  0
  2  9  1  6
  3 10  1  6
  4 11  1  0
 12 13  1  0
 13 14  1  0
 14 15  1  0
 16 15  1  0
 16 17  1  0
 17 12  1  0
 16 18  1  1
 12 19  1  0
 13 20  1  6
 14  7  1  6
M  CHG  1  25  -1
M  STY  1   1 SUP
M  SLB  1   1   1
M  SAL   1  5  21  22  23  24  25
M  SBL   1  1   5
M  SMT   1 OSO3-
M  SBV   1   5   -0.7146   -0.4125
M  END
$$$$
