Mucin Core 1 Structure.mol
  ChemDraw07032410452D

 30 31  0  0  1  0  0  0  0  0999 V2000
   -3.9694    1.3527    0.0000 C   0  0  0  0  0  0  0  0  0  0  0  0
   -3.4137    0.6096    0.0000 C   0  0  0  0  0  0  0  0  0  0  0  0
   -2.6156    0.8187    0.0000 C   0  0  0  0  0  0  0  0  0  0  0  0
   -1.8224    0.6096    0.0000 C   0  0  0  0  0  0  0  0  0  0  0  0
   -2.2348    1.3240    0.0000 O   0  0  0  0  0  0  0  0  0  0  0  0
   -3.0330    1.1150    0.0000 C   0  0  0  0  0  0  0  0  0  0  0  0
   -3.9694    2.1777    0.0000 O   0  0  0  0  0  0  0  0  0  0  0  0
   -3.2465    1.9119    0.0000 C   0  0  0  0  0  0  0  0  0  0  0  0
   -2.5320    2.3244    0.0000 O   0  0  0  0  0  0  0  0  0  0  0  0
   -4.2106    0.8231    0.0000 O   0  0  0  0  0  0  0  0  0  0  0  0
   -2.4021    0.0218    0.0000 O   0  0  0  0  0  0  0  0  0  0  0  0
   -1.0255    0.8231    0.0000 O   0  0  0  0  0  0  0  0  0  0  0  0
   -0.2286    0.6096    0.0000 C   0  0  0  0  0  0  0  0  0  0  0  0
   -0.4269    1.5532    0.0000 C   0  0  0  0  0  0  0  0  0  0  0  0
    0.7339    0.5515    0.0000 C   0  0  0  0  0  0  0  0  0  0  0  0
    1.5325    0.0111    0.0000 C   0  0  0  0  0  0  0  0  0  0  0  0
    1.3343    0.9548    0.0000 O   0  0  0  0  0  0  0  0  0  0  0  0
    0.3717    1.0129    0.0000 C   0  0  0  0  0  0  0  0  0  0  0  0
   -0.4269    2.3782    0.0000 O   0  0  0  0  0  0  0  0  0  0  0  0
    0.1582    1.8098    0.0000 C   0  0  0  0  0  0  0  0  0  0  0  0
    0.7416    2.3932    0.0000 O   0  0  0  0  0  0  0  0  0  0  0  0
    1.5325   -0.8139    0.0000 O   0  0  0  0  0  0  0  0  0  0  0  0
    0.7339   -0.2735    0.0000 N   0  0  0  0  0  0  0  0  0  0  0  0
    0.1506   -0.8569    0.0000 Ac  0  0  0  0  0  0  0  0  0  0  0  0
    2.1159   -1.3973    0.0000 C   0  0  0  0  0  0  0  0  0  0  0  0
    2.8303   -0.9848    0.0000 C   0  0  0  0  0  0  0  0  0  0  0  0
    3.2428   -0.2703    0.0000 N   0  0  0  0  0  0  0  0  0  0  0  0
    3.4137   -1.5682    0.0000 C   0  0  0  0  0  0  0  0  0  0  0  0
    4.2106   -1.3546    0.0000 O   0  0  0  0  0  0  0  0  0  0  0  0
    3.4137   -2.3932    0.0000 O   0  0  0  0  0  0  0  0  0  0  0  0
  1  2  1  0        0
  2  3  1  0        0
  3  4  1  0        0
  4  5  1  0        0
  5  6  1  0        0
  6  1  1  0        0
  1  7  1  0        0
  6  8  1  0        0
  8  9  1  0        0
  2 10  1  0        0
  3 11  1  0        0
  4 12  1  0        0
 12 13  1  0        0
 14 13  1  0        0
 13 15  1  0        0
 15 16  1  0        0
 16 17  1  0        0
 17 18  1  0        0
 18 14  1  0        0
 14 19  1  0        0
 18 20  1  0        0
 20 21  1  0        0
 16 22  1  0        0
 15 23  1  0        0
 23 24  1  0        0
 22 25  1  0        0
 25 26  1  0        0
 26 27  1  0        0
 26 28  1  0        0
 28 29  1  0        0
 28 30  2  0        0
M  ISO  1  24 227
M  END
