fuc(a1-3)fuc(2S).sdf
  ChemDraw02252508522D

  0  0  0     0  0              0 V3000
M  V30 BEGIN CTAB
M  V30 COUNTS 25 26 1 0 1
M  V30 BEGIN ATOM
M  V30 1 C -2.423472 -0.709635 0.000000 0
M  V30 2 C -3.036947 -1.772127 0.000000 0
M  V30 3 C -1.857062 -1.434824 0.000000 0
M  V30 4 C -0.670414 -1.772127 0.000000 0
M  V30 5 C -0.056668 -0.709635 0.000000 0
M  V30 6 O -1.236553 -1.046668 0.000000 0
M  V30 7 O -0.056668 0.115635 0.000000 0
M  V30 8 C -3.220340 -0.923053 0.000000 0
M  V30 9 O -3.036947 -2.597127 0.000000 0
M  V30 10 O -2.440512 -2.018274 0.000000 0
M  V30 11 O 0.044225 -1.359627 0.000000 0
M  V30 12 C -0.072356 1.597119 0.000000 0
M  V30 13 C -0.685832 0.534627 0.000000 0
M  V30 14 C 0.494053 0.871930 0.000000 0
M  V30 15 C 1.680701 0.534627 0.000000 0
M  V30 16 C 2.294447 1.597119 0.000000 0
M  V30 17 O 1.114561 1.260086 0.000000 0
M  V30 18 O 2.294447 2.422390 0.000000 0
M  V30 19 C -0.869225 1.383701 0.000000 0
M  V30 20 O -0.685832 -0.290373 0.000000 0
M  V30 21 O 2.395340 0.947127 0.000000 0
M  V30 22 S 2.395340 1.772127 0.000000 0
M  V30 23 O 3.220340 1.772127 0.000000 0
M  V30 24 O 1.570340 1.772127 0.000000 0
M  V30 25 O 2.395340 2.597127 0.000000 0 CHG=-1
M  V30 END ATOM
M  V30 BEGIN BOND
M  V30 1 2 22 23
M  V30 2 2 22 24
M  V30 3 1 22 25
M  V30 4 1 21 22
M  V30 5 1 15 21
M  V30 6 1 1 2
M  V30 7 1 2 3 CFG=1
M  V30 8 1 3 4 CFG=1
M  V30 9 1 5 4 CFG=1
M  V30 10 1 5 6
M  V30 11 1 6 1
M  V30 12 1 5 7
M  V30 13 1 1 8
M  V30 14 1 2 9
M  V30 15 1 3 10
M  V30 16 1 4 11
M  V30 17 1 12 13
M  V30 18 1 13 14 CFG=1
M  V30 19 1 14 15 CFG=1
M  V30 20 1 16 15 CFG=1
M  V30 21 1 16 17
M  V30 22 1 17 12
M  V30 23 1 16 18
M  V30 24 1 12 19
M  V30 25 1 13 20
M  V30 26 1 14 7
M  V30 END BOND
M  V30 BEGIN SGROUP
M  V30 1 SUP 1 ATOMS=(5 21 22 23 24 25) XBONDS=(1 5) LABEL="OSO3-" CSTATE=(4 -
M  V30 5 -0.714639 -0.412500 0)
M  V30 END SGROUP
M  V30 END CTAB
M  END
$$$$
