fuc(a1-4)fuc(2,3S).sdf
  ChemDraw02252508342D

  0  0  0     0  0              0 V3000
M  V30 BEGIN CTAB
M  V30 COUNTS 29 30 2 0 1
M  V30 BEGIN ATOM
M  V30 1 C -2.723041 -0.909394 0.000000 0
M  V30 2 C -3.336517 -1.971885 0.000000 0
M  V30 3 C -2.156631 -1.634582 0.000000 0
M  V30 4 C -0.969984 -1.971885 0.000000 0
M  V30 5 C -0.356238 -0.909394 0.000000 0
M  V30 6 O -1.536123 -1.246426 0.000000 0
M  V30 7 O -0.356238 -0.084123 0.000000 0
M  V30 8 C -3.519910 -1.122812 0.000000 0
M  V30 9 O -3.336517 -2.796885 0.000000 0
M  V30 10 O -2.740082 -2.218033 0.000000 0
M  V30 11 O -0.255344 -1.559385 0.000000 0
M  V30 12 C 0.226943 1.796606 0.000000 0
M  V30 13 C -0.386533 0.734115 0.000000 0
M  V30 14 C 0.793353 1.071418 0.000000 0
M  V30 15 C 1.980000 0.734115 0.000000 0
M  V30 16 C 2.593746 1.796606 0.000000 0
M  V30 17 O 1.413861 1.459574 0.000000 0
M  V30 18 O 2.593746 2.621877 0.000000 0
M  V30 19 C -0.569926 1.583188 0.000000 0
M  V30 20 O 2.694639 1.146615 0.000000 0
M  V30 21 S 2.694639 1.971885 0.000000 0
M  V30 22 O 3.519910 1.971885 0.000000 0
M  V30 23 O 1.869639 1.971885 0.000000 0
M  V30 24 O 2.694639 2.796885 0.000000 0 CHG=-1
M  V30 25 O 0.579664 0.274278 0.000000 0
M  V30 26 S 1.163115 -0.309172 0.000000 0
M  V30 27 O 0.579664 -0.892352 0.000000 0
M  V30 28 O 1.746566 0.274278 0.000000 0
M  V30 29 O 1.746566 -0.892352 0.000000 0 CHG=-1
M  V30 END ATOM
M  V30 BEGIN BOND
M  V30 1 2 21 22
M  V30 2 2 21 23
M  V30 3 1 21 24
M  V30 4 1 20 21
M  V30 5 1 15 20
M  V30 6 2 26 27
M  V30 7 2 26 28
M  V30 8 1 26 29
M  V30 9 1 25 26
M  V30 10 1 14 25
M  V30 11 1 1 2
M  V30 12 1 2 3 CFG=1
M  V30 13 1 3 4 CFG=1
M  V30 14 1 5 4 CFG=1
M  V30 15 1 5 6
M  V30 16 1 6 1
M  V30 17 1 5 7
M  V30 18 1 1 8
M  V30 19 1 2 9
M  V30 20 1 3 10
M  V30 21 1 4 11
M  V30 22 1 12 13
M  V30 23 1 13 14 CFG=1
M  V30 24 1 14 15 CFG=1
M  V30 25 1 16 15 CFG=1
M  V30 26 1 16 17
M  V30 27 1 17 12
M  V30 28 1 16 18
M  V30 29 1 12 19
M  V30 30 1 13 7
M  V30 END BOND
M  V30 BEGIN SGROUP
M  V30 1 SUP 1 ATOMS=(5 20 21 22 23 24) XBONDS=(1 5) LABEL="OSO3-" CSTATE=(4 -
M  V30 5 -0.714639 -0.412500 0)
M  V30 2 SUP 2 ATOMS=(5 25 26 27 28 29) XBONDS=(1 10) LABEL="OSO3-" CSTATE=(4 -
M  V30 10 0.213689 0.797139 0)
M  V30 END SGROUP
M  V30 END CTAB
M  END
$$$$
