OG29094-gangliotriose.sdf
  ChemDraw02282515302D

  0  0  0     0  0              0 V3000
M  V30 BEGIN CTAB
M  V30 COUNTS 37 39 0 0 1
M  V30 BEGIN ATOM
M  V30 1 C -2.143350 2.474999 0.000000 0
M  V30 2 C -2.143350 1.650000 0.000000 0
M  V30 3 O -1.428950 1.237500 0.000000 0
M  V30 4 N -2.857850 1.237500 0.000000 0
M  V30 5 C -2.857850 0.412500 0.000000 0
M  V30 6 C -3.572349 -0.000000 0.000000 0
M  V30 7 O -4.286849 0.412500 0.000000 0
M  V30 8 C -3.572349 -0.825000 0.000000 0
M  V30 9 O -4.286849 -1.237500 0.000000 0
M  V30 10 C -2.857850 -1.237500 0.000000 0
M  V30 11 C -2.857850 -2.062499 0.000000 0
M  V30 12 O -3.572349 -2.474999 0.000000 0
M  V30 13 O -2.143350 -0.825000 0.000000 0
M  V30 14 C -2.143350 -0.000000 0.000000 0
M  V30 15 O -1.428950 0.412500 0.000000 0
M  V30 16 C -0.714450 -0.000000 0.000000 0
M  V30 17 C -0.714450 -0.825000 0.000000 0
M  V30 18 O -1.428950 -1.237500 0.000000 0
M  V30 19 C 0.000050 -1.237500 0.000000 0
M  V30 20 O 0.000050 -2.062499 0.000000 0
M  V30 21 C 0.714450 -0.825000 0.000000 0
M  V30 22 O 1.428949 -1.237500 0.000000 0
M  V30 23 C 2.143450 -0.825000 0.000000 0
M  V30 24 C 2.143450 -0.000000 0.000000 0
M  V30 25 O 1.428949 0.412500 0.000000 0
M  V30 26 C 2.857949 0.412500 0.000000 0
M  V30 27 O 2.857949 1.237500 0.000000 0
M  V30 28 C 3.572349 -0.000000 0.000000 0
M  V30 29 O 4.286849 0.412500 0.000000 0
M  V30 30 O 3.572349 -0.825000 0.000000 0
M  V30 31 C 2.857949 -1.237500 0.000000 0
M  V30 32 C 2.857949 -2.062499 0.000000 0
M  V30 33 O 2.143450 -2.474999 0.000000 0
M  V30 34 O 0.714450 -0.000000 0.000000 0
M  V30 35 C 0.000050 0.412500 0.000000 0
M  V30 36 C 0.000050 1.237500 0.000000 0
M  V30 37 O 0.714450 1.650000 0.000000 0
M  V30 END ATOM
M  V30 BEGIN BOND
M  V30 1 1 1 2
M  V30 2 2 2 3
M  V30 3 1 2 4
M  V30 4 1 4 5
M  V30 5 1 6 5
M  V30 6 1 6 7 CFG=3
M  V30 7 1 6 8
M  V30 8 1 8 9 CFG=3
M  V30 9 1 8 10
M  V30 10 1 10 11
M  V30 11 1 11 12
M  V30 12 1 10 13
M  V30 13 1 14 13
M  V30 14 1 14 5
M  V30 15 1 14 15 CFG=3
M  V30 16 1 16 15 CFG=1
M  V30 17 1 16 17
M  V30 18 1 17 18 CFG=1
M  V30 19 1 17 19
M  V30 20 1 19 20
M  V30 21 1 21 19
M  V30 22 1 21 22 CFG=1
M  V30 23 1 23 22 CFG=1
M  V30 24 1 23 24
M  V30 25 1 24 25 CFG=3
M  V30 26 1 24 26
M  V30 27 1 26 27
M  V30 28 1 26 28
M  V30 29 1 28 29
M  V30 30 1 28 30
M  V30 31 1 30 31
M  V30 32 1 23 31
M  V30 33 1 31 32
M  V30 34 1 32 33
M  V30 35 1 21 34
M  V30 36 1 34 35
M  V30 37 1 16 35
M  V30 38 1 35 36
M  V30 39 1 36 37
M  V30 END BOND
M  V30 END CTAB
M  END
$$$$
